Version 4
SHEET 1 1560 680
WIRE -272 -848 -288 -848
WIRE -192 -848 -272 -848
WIRE -112 -848 -192 -848
WIRE -32 -848 -112 -848
WIRE 208 -848 -32 -848
WIRE 480 -848 208 -848
WIRE 208 -832 208 -848
WIRE -272 -800 -272 -848
WIRE -192 -800 -192 -848
WIRE -112 -800 -112 -848
WIRE -32 -800 -32 -848
WIRE 480 -784 480 -848
WIRE 208 -720 208 -752
WIRE 208 -720 176 -720
WIRE 320 -720 208 -720
WIRE 672 -720 640 -720
WIRE 320 -624 176 -624
WIRE 800 -624 640 -624
WIRE -304 -560 -304 -592
WIRE 320 -528 176 -528
WIRE 848 -528 640 -528
WIRE 848 -496 848 -528
WIRE 208 -432 176 -432
WIRE 320 -432 288 -432
WIRE 736 -432 640 -432
WIRE 480 -320 480 -368
WIRE 736 -112 736 -432
WIRE 800 -112 736 -112
WIRE 896 -112 880 -112
WIRE 736 -80 736 -112
WIRE 304 32 272 32
WIRE 432 32 384 32
WIRE 480 32 480 -64
WIRE 480 32 432 32
WIRE 544 32 544 -64
WIRE 576 32 544 32
WIRE 608 32 576 32
WIRE 736 32 736 0
WIRE 736 32 672 32
WIRE 784 32 736 32
WIRE 848 32 784 32
WIRE 912 32 848 32
WIRE 976 32 912 32
WIRE 1024 32 976 32
WIRE 1216 32 1024 32
WIRE 1392 32 1296 32
WIRE 1504 32 1392 32
WIRE 576 80 576 32
WIRE 784 80 784 32
WIRE 848 80 848 32
WIRE 912 80 912 32
WIRE 976 80 976 32
WIRE 1024 80 1024 32
WIRE 1504 80 1504 32
WIRE 1392 96 1392 32
WIRE 1392 192 1392 160
WIRE 576 224 576 160
WIRE 784 224 784 144
WIRE 784 224 576 224
WIRE 848 224 848 144
WIRE 848 224 784 224
WIRE 912 224 912 144
WIRE 912 224 848 224
WIRE 976 224 976 144
WIRE 976 224 912 224
WIRE 1024 224 1024 144
WIRE 1024 224 976 224
WIRE 784 288 784 224
FLAG -304 -480 0
FLAG -112 -736 0
FLAG -32 -736 0
FLAG 112 -624 0
FLAG 96 -528 0
FLAG 96 -720 0
FLAG 112 -432 0
FLAG 480 -320 0
FLAG 736 -720 0
FLAG 848 -496 0
FLAG 896 -112 0
FLAG -304 -592 VIN
IOPIN -304 -592 Out
FLAG -288 -848 VIN
IOPIN -288 -848 In
FLAG 272 32 VIN
IOPIN 272 32 In
FLAG 432 32 VSW
FLAG 848 -704 VSW
FLAG 784 288 0
FLAG -192 -736 0
FLAG -272 -736 0
FLAG 1392 192 0
FLAG 1504 160 0
SYMBOL voltage -304 -576 R0
WINDOW 123 0 0 Left 0
WINDOW 39 0 0 Left 0
SYMATTR InstName V1
SYMATTR Value 11.1
SYMBOL cap 544 16 R90
WINDOW 0 0 32 VBottom 2
WINDOW 3 32 32 VTop 2
SYMATTR InstName C2
SYMATTR Value 4.7µ
SYMBOL cap 800 144 R180
WINDOW 0 24 56 Left 2
WINDOW 3 24 8 Left 2
SYMATTR InstName C3
SYMATTR Value 47µ
SYMBOL schottky 608 48 R270
WINDOW 0 32 32 VTop 2
WINDOW 3 0 32 VBottom 2
SYMATTR InstName D1
SYMATTR Value MBRS360
SYMATTR Description Diode
SYMATTR Type diode
SYMBOL ind2 560 64 R0
SYMATTR InstName L1
SYMATTR Value 4.841µ
SYMATTR Type ind
SYMBOL ind2 400 16 R90
WINDOW 0 4 56 VBottom 2
WINDOW 3 32 56 VTop 2
SYMATTR InstName L2
SYMATTR Value 4.841µ
SYMATTR Type ind
SYMBOL PowerProducts\\LT3757 480 -576 R0
SYMATTR InstName U1
SYMBOL cap -128 -800 R0
SYMATTR InstName C4
SYMATTR Value 4.7µ
SYMBOL cap -48 -800 R0
SYMATTR InstName C5
SYMATTR Value 4.7µ
SYMBOL res 192 -544 R90
WINDOW 0 0 56 VBottom 2
WINDOW 3 32 56 VTop 2
SYMATTR InstName R2
SYMATTR Value 41.2k
SYMBOL cap 176 -640 R90
WINDOW 0 0 32 VBottom 2
WINDOW 3 32 32 VTop 2
SYMATTR InstName C6
SYMATTR Value 0.1µ
SYMBOL res 192 -848 R0
SYMATTR InstName R3
SYMATTR Value 105k
SYMBOL res 192 -736 R90
WINDOW 0 0 56 VBottom 2
WINDOW 3 32 56 VTop 2
SYMATTR InstName R4
SYMATTR Value 46.4k
SYMBOL res 304 -448 R90
WINDOW 0 0 56 VBottom 2
WINDOW 3 32 56 VTop 2
SYMATTR InstName R5
SYMATTR Value 10k
SYMBOL cap 176 -448 R90
WINDOW 0 0 32 VBottom 2
WINDOW 3 32 32 VTop 2
SYMATTR InstName C7
SYMATTR Value 6.8n
SYMBOL nmos 800 -704 R0
SYMATTR InstName M1
SYMATTR Value Si7336ADP
SYMBOL cap 736 -736 R90
WINDOW 0 0 32 VBottom 2
WINDOW 3 32 32 VTop 2
SYMATTR InstName C8
SYMATTR Value 4.7µ
SYMBOL res 832 -624 R0
SYMATTR InstName R6
SYMATTR Value 0.01
SYMBOL res 720 -96 R0
SYMATTR InstName R7
SYMATTR Value 105k
SYMBOL res 896 -128 R90
WINDOW 0 0 56 VBottom 2
WINDOW 3 32 56 VTop 2
SYMATTR InstName R8
SYMATTR Value 15.8k
SYMBOL cap 544 -80 R90
WINDOW 0 0 32 VBottom 2
WINDOW 3 32 32 VTop 2
SYMATTR InstName C1
SYMATTR Value 4.7µ
SYMBOL cap 864 144 R180
WINDOW 0 24 56 Left 2
WINDOW 3 24 8 Left 2
SYMATTR InstName C9
SYMATTR Value 47µ
SYMBOL cap 928 144 R180
WINDOW 0 24 56 Left 2
WINDOW 3 24 8 Left 2
SYMATTR InstName C10
SYMATTR Value 47µ
SYMBOL cap 992 144 R180
WINDOW 0 24 56 Left 2
WINDOW 3 24 8 Left 2
SYMATTR InstName C11
SYMATTR Value 47µ
SYMBOL cap -208 -800 R0
SYMATTR InstName C12
SYMATTR Value 4.7µ
SYMBOL cap -288 -800 R0
SYMATTR InstName C13
SYMATTR Value 4.7µ
SYMBOL cap 1008 80 R0
SYMATTR InstName C14
SYMATTR Value 10µ
SYMBOL zener 1408 160 R180
WINDOW 0 24 64 Left 2
WINDOW 3 24 0 Left 2
SYMATTR InstName D2
SYMATTR Value BZX84B12VLY
SYMBOL res 1312 16 R90
WINDOW 0 0 56 VBottom 2
WINDOW 3 32 56 VTop 2
SYMATTR InstName R1
SYMATTR Value 1
SYMBOL res 1488 64 R0
SYMATTR InstName R9
SYMATTR Value 6
TEXT -390 234 Left 2 !.tran 0 12m 0 10u
